-------------------------------------------------------
          Amber 14 SANDER                              2014
          -------------------------------------------------------

  [-O]verwriting output

File Assignments:

 Here is the input file:

Molecular dynamics
 &cntrl
  imin=0,
  irest=1,
  ntx=5,
  ntb=1,
  cut=10.0,
  ntr=1
  ntc=2,ntf=2
  tempi=30.0,temp0=40.0
  ntt=3,gamma_ln=1.0
  nstlim=10000,dt=0.001,
  ntpr=100,ntwx=100,ntwr=100
 /
#fix tje position
100.0
RES 1
END
END

--------------------------------------------------------------------------------
   1.  RESOURCE   USE:
--------------------------------------------------------------------------------

 getting new box info from bottom of inpcrd
 NATOM  =    2477 NTYPES =       8 NBONH =    1850 MBONA  =     629
 NTHETH =      16 MTHETA =      21 NPHIH =      35 MPHIA  =      33
 NHPARM =       0 NPARM  =       0 NNB   =    4407 NRES   =     615
 NBONA  =     629 NTHETA =      21 NPHIA =      33 NUMBND =      14
 NUMANG =      17 NPTRA  =       7 NATYP =      11 NPHB   =       1
 IFBOX  =       1 NMXRS  =      21 IFCAP =       0 NEXTRA =     614
 NCOPY  =       0

     BOX TYPE: RECTILINEAR

--------------------------------------------------------------------------------
   2.  CONTROL  DATA  FOR  THE  RUN
--------------------------------------------------------------------------------

default_name

General flags:
     imin    =       0, nmropt  =       0

Nature and format of input:
     ntx     =       5, irest   =       1, ntrx    =       1

Nature and format of output:
     ntxo    =       1, ntpr    =     100, ntrx    =       1, ntwr    =     100
     iwrap   =       0, ntwx    =     100, ntwv    =       0, ntwe    =       0
     ioutfm  =       0, ntwprt  =       0, idecomp =       0, rbornstat=      0

Potential function:
     ntf     =       2, ntb     =       1, igb     =       0, nsnb    =      25
     ipol    =       0, gbsa    =       0, iesp    =       0
     dielc   =   1.00000, cut     =  10.00000, intdiel =   1.00000

Frozen or restrained atoms:
     ibelly  =       0, ntr     =       1
     restraint_wt =   0.00000

Molecular dynamics:
     nstlim  =     10000, nscm    =         0, nrespa  =         1
     t       =   0.00000, dt      =   0.00100, vlimit  =  -1.00000

Langevin dynamics temperature regulation:
     ig      =   71277
     temp0   =  40.00000, tempi   =  30.00000, gamma_ln=   1.00000

SHAKE:
     ntc     =       2, jfastw  =       0
     tol     =   0.00001

Extra-points options:
     frameon =       1, chngmask=       1

Ewald parameters:
     verbose =       0, ew_type =       0, nbflag  =       1, use_pme =       1
     vdwmeth =       1, eedmeth =       1, netfrc  =       1
     Box X =   29.089   Box Y =   28.253   Box Z =   22.438
     Alpha =   90.000   Beta  =   90.000   Gamma =   90.000
     NFFT1 =   32       NFFT2 =   32       NFFT3 =   24
     Cutoff=   10.000   Tol   =0.100E-04
     Ewald Coefficient =  0.27511
     Interpolation order =    4

    LOADING THE CONSTRAINED ATOMS AS GROUPS

   5.  REFERENCE ATOM COORDINATES

  default_name
    ----- READING GROUP     1; TITLE:
 #fix tje position

     GROUP    1 HAS HARMONIC CONSTRAINTS   100.00000
 GRP    1 RES    1 TO     1
      Number of atoms in this group  =    21
    ----- END OF GROUP READ -----

--------------------------------------------------------------------------------
   3.  ATOMIC COORDINATES AND VELOCITIES
--------------------------------------------------------------------------------

default_name
 begin time read from input coords =    50.000 ps

 Number of triangulated 3-point waters found:      614

     Sum of charges from parm topology file =   0.00200000
     Forcing neutrality...

--------------------------------------------------------------------------------
   4.  RESULTS
 NSTEP =      100   TIME(PS) =      50.100  TEMP(K) =    30.92  PRESS =     0.0
 Etot   =     -7989.3553  EKtot   =       114.8742  EPtot      =     -8104.2295
 BOND   =         1.6424  ANGLE   =        12.1163  DIHED      =         0.4470
 1-4 NB =         8.4690  1-4 EEL =       -37.8953  VDWAALS    =      1651.0473
 EELEC  =     -9740.8915  EHBOND  =         0.0000  RESTRAINT  =         0.8354
 EAMBER (non-restraint)  =     -8105.0649
 ------------------------------------------------------------------------------

      A V E R A G E S   O V E R     100 S T E P S

 NSTEP =    10000   TIME(PS) =      60.000  TEMP(K) =    39.09  PRESS =     0.0
 Etot   =     -7931.8976  EKtot   =       145.2033  EPtot      =     -8077.1009
 BOND   =         1.9988  ANGLE   =        12.2687  DIHED      =         0.7026
 1-4 NB =         8.3556  1-4 EEL =       -37.7316  VDWAALS    =      1639.3848
 EELEC  =     -9703.3129  EHBOND  =         0.0000  RESTRAINT  =         1.2330
 EAMBER (non-restraint)  =     -8078.3340
 ------------------------------------------------------------------------------

      R M S  F L U C T U A T I O N S

 NSTEP =    10000   TIME(PS) =      60.000  TEMP(K) =     1.96  PRESS =     0.0
 Etot   =        14.1182  EKtot   =         7.2855  EPtot      =         7.7001
 BOND   =         0.3943  ANGLE   =         0.3742  DIHED      =         0.1673
 1-4 NB =         0.1643  1-4 EEL =         0.1404  VDWAALS    =        13.5694
 EELEC  =        14.9862  EHBOND  =         0.0000  RESTRAINT  =         0.2950
 EAMBER (non-restraint)  =         7.4050
 ------------------------------------------------------------------------------
