-------------------------------------------------------
          Amber 14 SANDER                              2014
          -------------------------------------------------------

  [-O]verwriting output

File Assignments:

 Here is the input file:

Molecular dynamics
 &cntrl
  imin=0,
  irest=1,
  ntx=5,
  ntb=1,
  cut=10.0,
  ntr=1
  ntc=2,ntf=2
  tempi=50.0,temp0=60.0
  ntt=3,gamma_ln=1.0
  nstlim=10000,dt=0.001,
  ntpr=100,ntwx=100,ntwr=100
 /
#fix tje position
100.0
RES 1
END
END

--------------------------------------------------------------------------------
   1.  RESOURCE   USE:
--------------------------------------------------------------------------------

 getting new box info from bottom of inpcrd
 NATOM  =    2477 NTYPES =       8 NBONH =    1850 MBONA  =     629
 NTHETH =      16 MTHETA =      21 NPHIH =      35 MPHIA  =      33
 NHPARM =       0 NPARM  =       0 NNB   =    4407 NRES   =     615
 NBONA  =     629 NTHETA =      21 NPHIA =      33 NUMBND =      14
 NUMANG =      17 NPTRA  =       7 NATYP =      11 NPHB   =       1
 IFBOX  =       1 NMXRS  =      21 IFCAP =       0 NEXTRA =     614
 NCOPY  =       0

     BOX TYPE: RECTILINEAR

--------------------------------------------------------------------------------
   2.  CONTROL  DATA  FOR  THE  RUN
--------------------------------------------------------------------------------

default_name

General flags:
     imin    =       0, nmropt  =       0

Nature and format of input:
     ntx     =       5, irest   =       1, ntrx    =       1

Nature and format of output:
     ntxo    =       1, ntpr    =     100, ntrx    =       1, ntwr    =     100
     iwrap   =       0, ntwx    =     100, ntwv    =       0, ntwe    =       0
     ioutfm  =       0, ntwprt  =       0, idecomp =       0, rbornstat=      0

Potential function:
     ntf     =       2, ntb     =       1, igb     =       0, nsnb    =      25
     ipol    =       0, gbsa    =       0, iesp    =       0
     dielc   =   1.00000, cut     =  10.00000, intdiel =   1.00000

Frozen or restrained atoms:
     ibelly  =       0, ntr     =       1
     restraint_wt =   0.00000

Molecular dynamics:
     nstlim  =     10000, nscm    =         0, nrespa  =         1
     t       =   0.00000, dt      =   0.00100, vlimit  =  -1.00000

Langevin dynamics temperature regulation:
     ig      =   71277
     temp0   =  60.00000, tempi   =  50.00000, gamma_ln=   1.00000

SHAKE:
     ntc     =       2, jfastw  =       0
     tol     =   0.00001

Extra-points options:
     frameon =       1, chngmask=       1

Ewald parameters:
     verbose =       0, ew_type =       0, nbflag  =       1, use_pme =       1
     vdwmeth =       1, eedmeth =       1, netfrc  =       1
     Box X =   29.089   Box Y =   28.253   Box Z =   22.438
     Alpha =   90.000   Beta  =   90.000   Gamma =   90.000
     NFFT1 =   32       NFFT2 =   32       NFFT3 =   24
     Cutoff=   10.000   Tol   =0.100E-04
     Ewald Coefficient =  0.27511
     Interpolation order =    4

    LOADING THE CONSTRAINED ATOMS AS GROUPS

   5.  REFERENCE ATOM COORDINATES

  default_name
    ----- READING GROUP     1; TITLE:
 #fix tje position

     GROUP    1 HAS HARMONIC CONSTRAINTS   100.00000
 GRP    1 RES    1 TO     1
      Number of atoms in this group  =    21
    ----- END OF GROUP READ -----

--------------------------------------------------------------------------------
   3.  ATOMIC COORDINATES AND VELOCITIES
--------------------------------------------------------------------------------

default_name
 begin time read from input coords =    70.000 ps

 Number of triangulated 3-point waters found:      614

     Sum of charges from parm topology file =   0.00200000
     Forcing neutrality...

--------------------------------------------------------------------------------
   4.  RESULTS
 NSTEP =      100   TIME(PS) =      70.100  TEMP(K) =    49.13  PRESS =     0.0
 Etot   =     -7853.1069  EKtot   =       182.5229  EPtot      =     -8035.6298
 BOND   =         1.8405  ANGLE   =        12.5982  DIHED      =         0.6893
 1-4 NB =         8.3498  1-4 EEL =       -37.5909  VDWAALS    =      1655.5675
 EELEC  =     -9678.4923  EHBOND  =         0.0000  RESTRAINT  =         1.4082
 EAMBER (non-restraint)  =     -8037.0380
 ------------------------------------------------------------------------------

      A V E R A G E S   O V E R     100 S T E P S

 NSTEP =    10000   TIME(PS) =      80.000  TEMP(K) =    58.25  PRESS =     0.0
 Etot   =     -7796.8114  EKtot   =       216.4142  EPtot      =     -8013.2255
 BOND   =         2.2664  ANGLE   =        12.6463  DIHED      =         1.1480
 1-4 NB =         8.2468  1-4 EEL =       -37.6393  VDWAALS    =      1637.4256
 EELEC  =     -9639.1909  EHBOND  =         0.0000  RESTRAINT  =         1.8717
 EAMBER (non-restraint)  =     -8015.0972
 ------------------------------------------------------------------------------

      R M S  F L U C T U A T I O N S

 NSTEP =    10000   TIME(PS) =      80.000  TEMP(K) =     2.22  PRESS =     0.0
 Etot   =        12.3827  EKtot   =         8.2507  EPtot      =         7.0200
 BOND   =         0.5510  ANGLE   =         0.4815  DIHED      =         0.3001
 1-4 NB =         0.2669  1-4 EEL =         0.1607  VDWAALS    =        20.2721
 EELEC  =        21.3143  EHBOND  =         0.0000  RESTRAINT  =         0.4279
 EAMBER (non-restraint)  =         6.5921
 ------------------------------------------------------------------------------
