-------------------------------------------------------
          Amber 14 SANDER                              2014
          -------------------------------------------------------

  [-O]verwriting output

File Assignments:

 Here is the input file:

Molecular dynamics
 &cntrl
  imin=0,
  irest=1,
  ntx=5,
  ntb=1,
  cut=10.0,
  ntr=1
  ntc=2,ntf=2
  tempi=10.0,temp0=20.0
  ntt=3,gamma_ln=1.0
  nstlim=10000,dt=0.001,
  ntpr=100,ntwx=100,ntwr=100
 /
#fix tje position
100.0
RES 1
END
END

--------------------------------------------------------------------------------
   1.  RESOURCE   USE:
--------------------------------------------------------------------------------

 getting new box info from bottom of inpcrd
 NATOM  =    2477 NTYPES =       8 NBONH =    1850 MBONA  =     629
 NTHETH =      16 MTHETA =      21 NPHIH =      35 MPHIA  =      33
 NHPARM =       0 NPARM  =       0 NNB   =    4407 NRES   =     615
 NBONA  =     629 NTHETA =      21 NPHIA =      33 NUMBND =      14
 NUMANG =      17 NPTRA  =       7 NATYP =      11 NPHB   =       1
 IFBOX  =       1 NMXRS  =      21 IFCAP =       0 NEXTRA =     614
 NCOPY  =       0

     BOX TYPE: RECTILINEAR

--------------------------------------------------------------------------------
   2.  CONTROL  DATA  FOR  THE  RUN
--------------------------------------------------------------------------------

default_name

General flags:
     imin    =       0, nmropt  =       0

Nature and format of input:
     ntx     =       5, irest   =       1, ntrx    =       1

Nature and format of output:
     ntxo    =       1, ntpr    =     100, ntrx    =       1, ntwr    =     100
     iwrap   =       0, ntwx    =     100, ntwv    =       0, ntwe    =       0
     ioutfm  =       0, ntwprt  =       0, idecomp =       0, rbornstat=      0

Potential function:
     ntf     =       2, ntb     =       1, igb     =       0, nsnb    =      25
     ipol    =       0, gbsa    =       0, iesp    =       0
     dielc   =   1.00000, cut     =  10.00000, intdiel =   1.00000

Frozen or restrained atoms:
     ibelly  =       0, ntr     =       1
     restraint_wt =   0.00000

Molecular dynamics:
     nstlim  =     10000, nscm    =         0, nrespa  =         1
     t       =   0.00000, dt      =   0.00100, vlimit  =  -1.00000

Langevin dynamics temperature regulation:
     ig      =   71277
     temp0   =  20.00000, tempi   =  10.00000, gamma_ln=   1.00000

SHAKE:
     ntc     =       2, jfastw  =       0
     tol     =   0.00001

Extra-points options:
     frameon =       1, chngmask=       1

Ewald parameters:
     verbose =       0, ew_type =       0, nbflag  =       1, use_pme =       1
     vdwmeth =       1, eedmeth =       1, netfrc  =       1
     Box X =   29.089   Box Y =   28.253   Box Z =   22.438
     Alpha =   90.000   Beta  =   90.000   Gamma =   90.000
     NFFT1 =   32       NFFT2 =   32       NFFT3 =   24
     Cutoff=   10.000   Tol   =0.100E-04
     Ewald Coefficient =  0.27511
     Interpolation order =    4

    LOADING THE CONSTRAINED ATOMS AS GROUPS

   5.  REFERENCE ATOM COORDINATES

  default_name
    ----- READING GROUP     1; TITLE:
 #fix tje position

     GROUP    1 HAS HARMONIC CONSTRAINTS   100.00000
 GRP    1 RES    1 TO     1
      Number of atoms in this group  =    21
    ----- END OF GROUP READ -----

--------------------------------------------------------------------------------
   3.  ATOMIC COORDINATES AND VELOCITIES
--------------------------------------------------------------------------------

default_name
 begin time read from input coords =    30.000 ps

 Number of triangulated 3-point waters found:      614

     Sum of charges from parm topology file =   0.00200000
     Forcing neutrality...

--------------------------------------------------------------------------------
   4.  RESULTS
 NSTEP =      100   TIME(PS) =      30.100  TEMP(K) =    10.88  PRESS =     0.0
 Etot   =     -8115.5225  EKtot   =        40.4199  EPtot      =     -8155.9424
 BOND   =         1.7402  ANGLE   =        12.2286  DIHED      =         0.6009
 1-4 NB =         8.0601  1-4 EEL =       -37.4859  VDWAALS    =      1616.6113
 EELEC  =     -9758.6617  EHBOND  =         0.0000  RESTRAINT  =         0.9641
 EAMBER (non-restraint)  =     -8156.9065
 ------------------------------------------------------------------------------

      A V E R A G E S   O V E R     100 S T E P S

 NSTEP =    10000   TIME(PS) =      40.000  TEMP(K) =    18.87  PRESS =     0.0
 Etot   =     -8056.0344  EKtot   =        70.0892  EPtot      =     -8126.1236
 BOND   =         1.8645  ANGLE   =        12.1256  DIHED      =         0.7715
 1-4 NB =         8.2236  1-4 EEL =       -37.4405  VDWAALS    =      1600.1630
 EELEC  =     -9712.7380  EHBOND  =         0.0000  RESTRAINT  =         0.9066
 EAMBER (non-restraint)  =     -8127.0302
 ------------------------------------------------------------------------------

      R M S  F L U C T U A T I O N S

 NSTEP =    10000   TIME(PS) =      40.000  TEMP(K) =     1.98  PRESS =     0.0
 Etot   =        14.4726  EKtot   =         7.3387  EPtot      =         7.3747
 BOND   =         0.2521  ANGLE   =         0.2294  DIHED      =         0.1390
 1-4 NB =         0.1282  1-4 EEL =         0.0980  VDWAALS    =         8.8550
 EELEC  =        12.2789  EHBOND  =         0.0000  RESTRAINT  =         0.2043
 EAMBER (non-restraint)  =         7.1704
 ------------------------------------------------------------------------------
