-------------------------------------------------------
          Amber 14 SANDER                              2014
          -------------------------------------------------------

  [-O]verwriting output

File Assignments:

 Here is the input file:

Molecular dynamics
 &cntrl
  imin=0,
  irest=1,
  ntx=5,
  ntb=1,
  cut=10.0,
  ntr=1
  ntc=2,ntf=2
  tempi=40.0,temp0=50.0
  ntt=3,gamma_ln=1.0
  nstlim=10000,dt=0.001,
  ntpr=100,ntwx=100,ntwr=100
 /
#fix tje position
100.0
RES 1
END
END

--------------------------------------------------------------------------------
   1.  RESOURCE   USE:
--------------------------------------------------------------------------------

 getting new box info from bottom of inpcrd
 NATOM  =    2477 NTYPES =       8 NBONH =    1850 MBONA  =     629
 NTHETH =      16 MTHETA =      21 NPHIH =      35 MPHIA  =      33
 NHPARM =       0 NPARM  =       0 NNB   =    4407 NRES   =     615
 NBONA  =     629 NTHETA =      21 NPHIA =      33 NUMBND =      14
 NUMANG =      17 NPTRA  =       7 NATYP =      11 NPHB   =       1
 IFBOX  =       1 NMXRS  =      21 IFCAP =       0 NEXTRA =     614
 NCOPY  =       0

     BOX TYPE: RECTILINEAR

--------------------------------------------------------------------------------
   2.  CONTROL  DATA  FOR  THE  RUN
--------------------------------------------------------------------------------

default_name

General flags:
     imin    =       0, nmropt  =       0

Nature and format of input:
     ntx     =       5, irest   =       1, ntrx    =       1

Nature and format of output:
     ntxo    =       1, ntpr    =     100, ntrx    =       1, ntwr    =     100
     iwrap   =       0, ntwx    =     100, ntwv    =       0, ntwe    =       0
     ioutfm  =       0, ntwprt  =       0, idecomp =       0, rbornstat=      0

Potential function:
     ntf     =       2, ntb     =       1, igb     =       0, nsnb    =      25
     ipol    =       0, gbsa    =       0, iesp    =       0
     dielc   =   1.00000, cut     =  10.00000, intdiel =   1.00000

Frozen or restrained atoms:
     ibelly  =       0, ntr     =       1
     restraint_wt =   0.00000

Molecular dynamics:
     nstlim  =     10000, nscm    =         0, nrespa  =         1
     t       =   0.00000, dt      =   0.00100, vlimit  =  -1.00000

Langevin dynamics temperature regulation:
     ig      =   71277
     temp0   =  50.00000, tempi   =  40.00000, gamma_ln=   1.00000

SHAKE:
     ntc     =       2, jfastw  =       0
     tol     =   0.00001

Extra-points options:
     frameon =       1, chngmask=       1

Ewald parameters:
     verbose =       0, ew_type =       0, nbflag  =       1, use_pme =       1
     vdwmeth =       1, eedmeth =       1, netfrc  =       1
     Box X =   29.089   Box Y =   28.253   Box Z =   22.438
     Alpha =   90.000   Beta  =   90.000   Gamma =   90.000
     NFFT1 =   32       NFFT2 =   32       NFFT3 =   24
     Cutoff=   10.000   Tol   =0.100E-04
     Ewald Coefficient =  0.27511
     Interpolation order =    4

    LOADING THE CONSTRAINED ATOMS AS GROUPS

   5.  REFERENCE ATOM COORDINATES

  default_name
    ----- READING GROUP     1; TITLE:
 #fix tje position

     GROUP    1 HAS HARMONIC CONSTRAINTS   100.00000
 GRP    1 RES    1 TO     1
      Number of atoms in this group  =    21
    ----- END OF GROUP READ -----

--------------------------------------------------------------------------------
   3.  ATOMIC COORDINATES AND VELOCITIES
--------------------------------------------------------------------------------

default_name
 begin time read from input coords =    60.000 ps

 Number of triangulated 3-point waters found:      614

     Sum of charges from parm topology file =   0.00200000
     Forcing neutrality...

--------------------------------------------------------------------------------
   4.  RESULTS
 NSTEP =      100   TIME(PS) =      60.100  TEMP(K) =    41.50  PRESS =     0.0
 Etot   =     -7916.1638  EKtot   =       154.1682  EPtot      =     -8070.3320
 BOND   =         1.7242  ANGLE   =        12.2382  DIHED      =         1.1311
 1-4 NB =         8.5113  1-4 EEL =       -37.6845  VDWAALS    =      1632.1816
 EELEC  =     -9689.3846  EHBOND  =         0.0000  RESTRAINT  =         0.9507
 EAMBER (non-restraint)  =     -8071.2827
 ------------------------------------------------------------------------------

      A V E R A G E S   O V E R     100 S T E P S

 NSTEP =    10000   TIME(PS) =      70.000  TEMP(K) =    48.94  PRESS =     0.0
 Etot   =     -7858.0046  EKtot   =       181.8143  EPtot      =     -8039.8189
 BOND   =         1.9397  ANGLE   =        12.5506  DIHED      =         0.9512
 1-4 NB =         8.2939  1-4 EEL =       -37.7157  VDWAALS    =      1633.2003
 EELEC  =     -9660.4388  EHBOND  =         0.0000  RESTRAINT  =         1.3999
 EAMBER (non-restraint)  =     -8041.2188
 ------------------------------------------------------------------------------

      R M S  F L U C T U A T I O N S

 NSTEP =    10000   TIME(PS) =      70.000  TEMP(K) =     2.16  PRESS =     0.0
 Etot   =        15.4618  EKtot   =         8.0344  EPtot      =         8.6707
 BOND   =         0.3973  ANGLE   =         0.3685  DIHED      =         0.2213
 1-4 NB =         0.2967  1-4 EEL =         0.1233  VDWAALS    =        13.7261
 EELEC  =        17.3516  EHBOND  =         0.0000  RESTRAINT  =         0.2952
 EAMBER (non-restraint)  =         8.3755
 ------------------------------------------------------------------------------
